Version 4
SHEET 1 904 680
WIRE 272 -32 128 -32
WIRE 848 -32 272 -32
WIRE 128 32 128 -32
WIRE 848 32 848 -32
WIRE 272 64 272 48
WIRE 352 64 272 64
WIRE 560 64 416 64
WIRE 272 80 272 64
WIRE -144 160 -208 160
WIRE -16 160 -64 160
WIRE 128 160 128 112
WIRE 128 160 48 160
WIRE 224 160 128 160
WIRE 560 160 560 64
WIRE 848 160 848 112
WIRE 128 192 128 160
WIRE -208 208 -208 160
WIRE 272 208 272 176
WIRE 416 208 272 208
WIRE 560 272 560 240
WIRE 128 304 128 272
WIRE 272 304 272 288
WIRE 416 304 416 272
WIRE -208 336 -208 288
FLAG -208 336 0
FLAG 560 272 0
FLAG 128 304 0
FLAG 272 304 0
FLAG 416 304 0
FLAG 848 160 0
SYMBOL voltage -208 192 R0
WINDOW 123 24 124 Left 2
WINDOW 39 0 0 Left 0
SYMATTR InstName V1
SYMATTR Value ""
SYMATTR Value2 AC 1
SYMBOL res -48 144 R90
WINDOW 0 0 56 VBottom 2
WINDOW 3 32 56 VTop 2
SYMATTR InstName R1
SYMATTR Value 500k
SYMBOL cap 48 144 R90
WINDOW 0 0 32 VBottom 2
WINDOW 3 32 32 VTop 2
SYMATTR InstName C1
SYMATTR Value 9.4n
SYMBOL res 112 16 R0
SYMATTR InstName R2
SYMATTR Value 3Meg
SYMBOL res 112 176 R0
SYMATTR InstName R3
SYMATTR Value 2Meg
SYMBOL nmos 224 80 R0
SYMATTR InstName M1
SYMBOL res 256 192 R0
SYMATTR InstName R4
SYMATTR Value 2k
SYMBOL res 256 -48 R0
SYMATTR InstName R5
SYMATTR Value 20k
SYMBOL cap 416 48 R90
WINDOW 0 0 32 VBottom 2
WINDOW 3 32 32 VTop 2
SYMATTR InstName C2
SYMATTR Value 400n
SYMBOL cap 432 272 R180
WINDOW 0 24 56 Left 2
WINDOW 3 24 8 Left 2
SYMATTR InstName C3
SYMATTR Value 7µ
SYMBOL res 544 144 R0
SYMATTR InstName R6
SYMATTR Value 20k
SYMBOL voltage 848 16 R0
WINDOW 123 0 0 Left 0
WINDOW 39 0 0 Left 0
SYMATTR InstName V2
SYMATTR Value 5
TEXT -242 360 Left 2 !.ac dec 100 1 1meg
